Using logfiles ['/home/mojtaba/simulator/util/job_launching/../job_launching/logfiles/sim_log.myTest.20.12.20-Sunday.txt']
procman.id	Node                          	App                 	AppArgs             	Version             	Config    	RunningTime    	Mem   	JobStatus                     	Basic GPGPU-Sim Stats                             	
-----------------------------------------------------------------------------------------------------------------------------------------------------------------------------------------------------------------------------
1         	arcortx2080ti4x               	backprop-rodinia-2.0	4096___data_result_4	backprop-rodinia-2.0	RTX2080Ti 	              0	0     	RUNNING                       	                                                  	
2         	arcortx2080ti4x               	bfs-rodinia-2.0-ft  	__data_graph4096_txt	bfs-rodinia-2.0-ft.a	RTX2080Ti 	              0	0     	RUNNING                       	                                                  	
3         	arcortx2080ti4x               	hotspot-rodinia-2.0-	30_6_40___data_resul	hotspot-rodinia-2.0-	RTX2080Ti 	              0	0     	RUNNING                       	                                                  	
4         	arcortx2080ti4x               	heartwall-rodinia-2.	__data_test_avi_1___	heartwall-rodinia-2.	RTX2080Ti 	              0	0     	RUNNING                       	                                                  	
5         	arcortx2080ti4x               	lud-rodinia-2.0-ft  	_v__b__i___data_64_d	lud-rodinia-2.0-ft.a	RTX2080Ti 	              0	0     	RUNNING                       	                                                  	
6         	arcortx2080ti4x               	nw-rodinia-2.0-ft   	128_10___data_result	nw-rodinia-2.0-ft.ac	RTX2080Ti 	              0	0     	RUNNING                       	                                                  	
7         	arcortx2080ti4x               	nn-rodinia-2.0-ft   	__data_filelist_4_3_	nn-rodinia-2.0-ft.ac	RTX2080Ti 	              0	0     	RUNNING                       	                                                  	
8         	arcortx2080ti4x               	pathfinder-rodinia-2	1000_20_5___data_res	pathfinder-rodinia-2	RTX2080Ti 	              0	0     	RUNNING                       	                                                  	
9         	arcortx2080ti4x               	srad_v2-rodinia-2.0-	__data_matrix128x128	srad_v2-rodinia-2.0-	RTX2080Ti 	              0	0     	RUNNING                       	                                                  	
10        	arcortx2080ti4x               	streamcluster-rodini	3_6_16_1024_1024_100	streamcluster-rodini	RTX2080Ti 	              0	0     	RUNNING                       	                                                  	
-----------------------------------------------------------------------------------------------------------------------------------------------------------------------------------------------------------------------------
